Program Version,EnergyPlus, Version 9.6.0-bbd44613e0, YMD=2022.09.11 20:51,
   ** Warning ** Timestep: Requested number (1) is less than the suggested minimum of 4.
   **   ~~~   ** Please see entry for Timestep in Input/Output Reference for discussion of considerations.
   ************* Successfully added path "/scratch/user/ffeng/MPC/Case1" to the sys.path in Python
   ************* Successfully added path "/scratch/user/ffeng/program/anaconda3/lib/python38.zip" to the sys.path in Python
   ************* Successfully added path "/scratch/user/ffeng/program/anaconda3/lib/python3.8" to the sys.path in Python
   ************* Successfully added path "/scratch/user/ffeng/program/anaconda3/lib/python3.8/lib-dynload" to the sys.path in Python
   ************* Successfully added path "/scratch/user/ffeng/program/anaconda3/lib/python3.8/site-packages" to the sys.path in Python
   ************* Successfully added path "/scratch/user/ffeng/program/anaconda3/lib/python3.8/site-packages/mpipool-1.0.0-py3.8.egg" to the sys.path in Python
   ************* Successfully added path "/scratch/user/ffeng/program/anaconda3/lib/python3.8/site-packages/errr-1.0.0-py3.8.egg" to the sys.path in Python
   ************* Successfully added path "/scratch/user/ffeng/program/anaconda3/lib/python3.8/site-packages/dill-0.3.4-py3.8.egg" to the sys.path in Python
   ************* Successfully added path "/scratch/user/ffeng/program/anaconda3/lib/python3.8/site-packages/pywincalc-2.4.2-py3.8-linux-x86_64.egg" to the sys.path in Python
   ************* Successfully added path "/scratch/user/ffeng/program/anaconda3/lib/python3.8/site-packages/locket-0.2.1-py3.8.egg" to the sys.path in Python
   ************* PythonPlugin: Class SetCFSState imported from: /scratch/user/ffeng/MPC/Case1/PythonPluginCFSControl_MPC.py
   ************* Beginning Zone Sizing Calculations
   ** Warning ** Weather file location will be used rather than entered (IDF) Location object.
   **   ~~~   ** ..Location object=CHICAGO OHARE INTL AP
   **   ~~~   ** ..Weather File Location=Chicago Ohare Intl Ap IL USA TMY3 WMO#=725300
   **   ~~~   ** ..due to location differences, Latitude difference=[0.00] degrees, Longitude difference=[0.00] degrees.
   **   ~~~   ** ..Time Zone difference=[0.0] hour(s), Elevation difference=[20100.00] percent, [201.00] meters.
   ** Warning ** ProcessScheduleInput: DecodeHHMMField, Invalid "until" field value is not a multiple of the minutes for each timestep: UNTIL: 8:30
   **   ~~~   ** Other errors may result. Occurred in Day Schedule=PEOPLE OCCP SCHED_dy_1
   ** Warning ** ProcessScheduleInput: DecodeHHMMField, Invalid "until" field value is not a multiple of the minutes for each timestep: UNTIL: 9:30
   **   ~~~   ** Other errors may result. Occurred in Day Schedule=PEOPLE OCCP SCHED_dy_1
   ** Warning ** ProcessScheduleInput: DecodeHHMMField, Invalid "until" field value is not a multiple of the minutes for each timestep: UNTIL: 10:30
   **   ~~~   ** Other errors may result. Occurred in Day Schedule=PEOPLE OCCP SCHED_dy_1
   ** Warning ** ProcessScheduleInput: DecodeHHMMField, Invalid "until" field value is not a multiple of the minutes for each timestep: UNTIL: 11:30
   **   ~~~   ** Other errors may result. Occurred in Day Schedule=PEOPLE OCCP SCHED_dy_1
   ** Warning ** ProcessScheduleInput: DecodeHHMMField, Invalid "until" field value is not a multiple of the minutes for each timestep: UNTIL: 12:30
   **   ~~~   ** Other errors may result. Occurred in Day Schedule=PEOPLE OCCP SCHED_dy_1
   ** Warning ** ProcessScheduleInput: DecodeHHMMField, Invalid "until" field value is not a multiple of the minutes for each timestep: UNTIL: 13:30
   **   ~~~   ** Other errors may result. Occurred in Day Schedule=PEOPLE OCCP SCHED_dy_1
   ** Warning ** ProcessScheduleInput: DecodeHHMMField, Invalid "until" field value is not a multiple of the minutes for each timestep: UNTIL: 14:30
   **   ~~~   ** Other errors may result. Occurred in Day Schedule=PEOPLE OCCP SCHED_dy_1
   ** Warning ** ProcessScheduleInput: DecodeHHMMField, Invalid "until" field value is not a multiple of the minutes for each timestep: UNTIL: 15:30
   **   ~~~   ** Other errors may result. Occurred in Day Schedule=PEOPLE OCCP SCHED_dy_1
   ** Warning ** ProcessScheduleInput: DecodeHHMMField, Invalid "until" field value is not a multiple of the minutes for each timestep: UNTIL: 16:30
   **   ~~~   ** Other errors may result. Occurred in Day Schedule=PEOPLE OCCP SCHED_dy_1
   ** Warning ** ProcessScheduleInput: DecodeHHMMField, Invalid "until" field value is not a multiple of the minutes for each timestep: UNTIL: 17:30
   **   ~~~   ** Other errors may result. Occurred in Day Schedule=PEOPLE OCCP SCHED_dy_1
   ** Warning ** WindowProperty:FrameAndDivider: In FrameAndDivider 2 Divider Width > 0 
   **   ~~~   ** ...but Number of Horizontal Dividers = 0 and Number of Vertical Dividers = 0.
   **   ~~~   ** ...Divider Width set to 0.
   ** Warning ** GetHTSurfaceData: Surfaces with interface to Ground found but no "Ground Temperatures" were input.
   **   ~~~   ** Found first in surface=28643_GROUNDFLOOR_0_0_1
   **   ~~~   ** Defaults, constant throughout the year of (18.0) will be used.
   ** Warning ** GetSurfaceData: Construction 5 of interzone surface 28643_PARTITION_10_0_0 does not have the same materials in the reverse order as the construction 6 of adjacent surface 28892_PARTITION_1_0_10003
   **   ~~~   ** or the properties of the reversed layers are not correct due to differing layer front and back side values
   **   ~~~   ** ...but Nominal U values are similar, diff=[0.0000] ... simulation proceeds.
   **   ~~~   ** ...if the two zones are expected to have significantly different temperatures, the proper "reverse" construction should be created.
   **   ~~~   ** ...this problem for this pair will not be reported again.
   ************* Note that the following warning(s) may/will occur if you have not enclosed your zone completely.
   ** Warning ** Entered Zone Volumes differ from calculated zone volume(s).
   **   ~~~   ** ...use Output:Diagnostics,DisplayExtraWarnings; to show more details on individual zones.
   ** Warning ** CalculateZoneVolume: 13 zones are not fully enclosed. For more details use:  Output:Diagnostics,DisplayExtrawarnings; 
   ** Warning ** CheckUsedConstructions: There are 15 nominally unused constructions in input.
   **   ~~~   ** For explicit details on each unused construction, use Output:Diagnostics,DisplayExtraWarnings;
   ** Warning ** DetermineShadowingCombinations: There are 1 surfaces which are receiving surfaces and are non-convex.
   **   ~~~   ** ...Shadowing values may be inaccurate. Check .shd report file for more surface shading details
   **   ~~~   ** ...Add Output:Diagnostics,DisplayExtraWarnings; to see individual warnings for each surface.
   ** Warning ** GetElectricEIRChillerInput: Chiller:Electric:EIR="CHILLER ELECTRIC EIR 1"
   **   ~~~   ** Adding OutdoorAir:Node=NODE 51
   ************* Beginning System Sizing Calculations
   ************* Beginning Plant Sizing Calculations
   ************* Testing Individual Branch Integrity
   ************* All Branches passed integrity testing
   ************* Testing Individual Supply Air Path Integrity
   ************* All Supply Air Paths passed integrity testing
   ************* Testing Individual Return Air Path Integrity
   ************* All Return Air Paths passed integrity testing
   ************* No node connection errors were found.
   ************* Beginning Simulation
   ** Severe  ** Call to on_begin_zone_timestep_before_init_heat_balance() on PythonPluginCFSControl_MPC.SetCFSState failed!
   **   ~~~   ** Python error description follows: 
   **   ~~~   ** UnboundLocalError("local variable 'TfSol_clear' referenced before assignment")
   **   ~~~   ** Python traceback follows: 
   **   ~~~   ** ```
   **   ~~~   **  >>> Traceback (most recent call last):
   **   ~~~   **  >>>   File "/scratch/user/ffeng/MPC/Case1/PythonPluginCFSControl_MPC.py", line 291, in on_begin_zone_timestep_before_init_heat_balance
    TfSol_clear,RbSol_clear,TfVis_clear,RbVis_clear,fAbs_layer1_clear,bAbs_layer1_clear,controlVariable =  read_BSDF_clear()
   **   ~~~   **  >>>   File "/scratch/user/ffeng/MPC/Case1/PythonPluginCFSControl_MPC.py", line 110, in read_BSDF_clear
    return TfSol_clear,RbSol_clear,TfVis_clear,RbVis_clear,fAbs_layer1_clear,bAbs_layer1_clear,controlVariable
   **   ~~~   **  >>> UnboundLocalError: local variable 'TfSol_clear' referenced before assignment
   **   ~~~   ** ```
   **  Fatal  ** Program terminates after call to on_begin_zone_timestep_before_init_heat_balance() on PythonPluginCFSControl_MPC.SetCFSState failed!
   ...Summary of Errors that led to program termination:
   ..... Reference severe error count=1
   ..... Last severe error=Call to on_begin_zone_timestep_before_init_heat_balance() on PythonPluginCFSControl_MPC.SetCFSState failed!
   *************
   ************* ===== Final Error Summary =====
   ************* The following error categories occurred.  Consider correcting or noting.
   ************* Nominally Unused Constructions
   ************* ..The nominally unused constructions warning is provided to alert you to potential conditions that can cause
   ************* ..extra time during simulation. Each construction is calculated by the algorithm indicated in the HeatBalanceAlgorithm
   ************* ..object. You may remove the constructions indicated (when you use the DisplayExtraWarnings option).
   *************
   ************* EnergyPlus Warmup Error Summary. During Warmup: 0 Warning; 0 Severe Errors.
   ************* EnergyPlus Sizing Error Summary. During Sizing: 18 Warning; 0 Severe Errors.
   ************* EnergyPlus Terminated--Fatal Error Detected. 20 Warning; 1 Severe Errors; Elapsed Time=00hr 00min  3.91sec
